test/testfiles/synthetic_data_v33.RAW
 0,    100.00, 33, 0, 0, 60.00       / May 16, 2017 17:17:11; Simulator Version 20 Beta; BuildDate 2017_5_15
This is a reduced version of a synthetic power system model that was developed as part of the US ARPA-E Grid Data research project and contains no CEII.
Reference: A.B. Birchfield, T. Xu, K.M. Gegner, K.S. Shetye, and T.J. Overbye, "Grid Structural Characteristics as Validation Criteria for Synthetic Networks", IEEE Transactions on Power Systems, 2017.
    1,'WINNSBORO 0 ', 138.0000,1,   1,   2,   1,1.01215947, -10.768348, 1.10000, 0.90000, 1.10000, 0.90000
  500,'MC CORMICK 0', 138.0000,1,   1,   2,   1,1.01686382, -13.971591, 1.10000, 0.90000, 1.10000, 0.90000
0 / END OF BUS DATA, BEGIN LOAD DATA
    2,'1 ',1,   1,   2,    42.801,    11.414,     0.000,     0.000,     0.000,     0.000,   1,1
  500,'2 ',1,   1,   2,    19.698,     5.253,     0.000,     0.000,     0.000,     0.000,   1,1
0 / END OF LOAD DATA, BEGIN FIXED SHUNT DATA
   320,'2 ', 1,     0.000,    48.274
   784,'2 ', 1,     0.000,    19.939
0 / END OF FIXED SHUNT DATA, BEGIN GENERATOR DATA
    9,'1 ',   771.800,   105.747,   359.659,   -94.160,1.04000,    0,   926.160,   0.00000,   0.17160,   0.00000,   0.00000,1.00000,1,  100.0,   771.800,   231.540,   1,1.0000,   0,1.0000,   0,1.0000,   0,1.0000,0, 1.0000
  498,'1 ',    18.000,     6.912,     6.912,    -0.882,1.04000,    0,    21.600,   0.00000,   0.11760,   0.00000,   0.00000,1.00000,1,  100.0,    18.000,     5.400,   1,1.0000,   0,1.0000,   0,1.0000,   0,1.0000,0, 1.0000
0 / END OF GENERATOR DATA, BEGIN BRANCH DATA
     2,     1,'1 ',5.30993E-4,3.13968E-3,0.00000E0,  76.50,   0.00,   0.00,  0.00000,  0.00000,  0.00000,  0.00000,1,1,   0.0,   1,1.0000,   0,1.0000,   0,1.0000,   0,1.0000
   500,   489,'1 ',4.69552E-3,4.30732E-2,1.52641E-2, 320.29,   0.00,   0.00,  0.00000,  0.00000,  0.00000,  0.00000,1,1,   0.0,   1,1.0000,   0,1.0000,   0,1.0000,   0,1.0000
0 / END OF BRANCH DATA, BEGIN TRANSFORMER DATA
     8,     7,    0,'1 ',1,1,1,0.00000E0,0.00000E0,2,'            ',1,   1,1.0000,   0,1.0000,   0,1.0000,   0,1.0000,'            '
3.55062E-4,1.29000E-2, 100.00
1.000000,138.000,   0.000, 567.00,   0.00,   0.00,0,     0,1.500000,0.510000,1.500000,0.510000,159, 0, 0.00000, 0.00000,  0.000
1.000000,345.000
  190,  191,  192,'1 ',1,1,1,0.00000E0,0.00000E0,2,'            ',1,   1,1.0000,   0,1.0000,   0,1.0000,   0,1.0000,'            '
7.65222E-4,3.06907E-2, 100.00,3.63998E-3,1.45988E-1, 100.00,6.00828E-3,2.40974E-1, 100.00,1.04100093, -65.843144
1.000000,230.000,   0.000, 369.54,   0.00,   0.00,0,   193,1.100000,0.900000,1.010000,0.990000, 33, 0, 0.00000, 0.00000,  0.000
1.000000,115.000,   0.000, 238.09,   0.00,   0.00,0,   193,1.100000,0.900000,1.010000,0.990000, 33, 0, 0.00000, 0.00000,  0.000
1.000000, 20.000,   0.000, 131.45,   0.00,   0.00,0,   193,1.100000,0.900000,1.010000,0.990000, 33, 0, 0.00000, 0.00000,  0.000
   498,   496,    0,'1 ',1,1,1,0.00000E0,0.00000E0,2,'            ',1,   1,1.0000,   0,1.0000,   0,1.0000,   0,1.0000,'            '
4.00610E-3,1.17550E-1, 100.00
1.000000, 13.800,   0.000, 150.00,   0.00,   0.00,0,     0,1.500000,0.510000,1.500000,0.510000,159, 0, 0.00000, 0.00000,  0.000
1.000000,138.000
0 / END OF TRANSFORMER DATA, BEGIN AREA DATA
   1,    0,     0.000,     1.000,'SouthCarolin'
0 / END OF AREA DATA, BEGIN TWO-TERMINAL DC DATA
'DC Line 1   ', 1,    10.0000,     500.00,     250.00,       0.00,     0.0000,    0.10000,I,       0.00,   0,0.00000
2060653,  2, 15.00, 15.00,  0.0000, 10.0000,  500.0, 0.38491, 1.50000, 1.50000, 0.51000, 0.00625,     0,     0,     0, 0, 0.00000
 66353,  2, 15.00, 15.00,  0.0000, 10.0000,  500.0, 0.38491, 1.50000, 1.50000, 0.51000, 0.00625,     0,     0,     0, 0, 0.00000
'DC Line 1   ', 1,    10.0000,     100.00,     250.00,       0.00,     0.0000,    0.10000,I,       0.00,   0,0.00000
3008030,  2, 15.00, 15.00,  0.0000, 10.0000,  500.0, 0.38491, 1.50000, 1.50000, 0.51000, 0.00625,     0,     0,     0, 0, 0.00000
 61477,  2, 15.00, 15.00,  0.0000, 10.0000,  345.0, 0.55784, 1.50000, 1.50000, 0.51000, 0.00625,     0,     0,     0, 0, 0.00000<Paste>
0 / END OF TWO-TERMINAL DC DATA, BEGIN VOLTAGE SOURCE CONVERTER DATA
0 / END OF VOLTAGE SOURCE CONVERTER DATA, BEGIN IMPEDANCE CORRECTION DATA
 1, -40.00,1.48000, -30.00,1.27000, -20.00,1.12000, -10.00,1.03000,   0.00,1.00000,  10.00,1.03000,  20.00,1.12000,  30.00,1.27000,  40.00,1.48000
 2, -25.00,1.41000, -12.50,1.10000,   0.00,1.00000,  12.50,1.10000,  25.00,1.41000
 3, -30.00,1.41000, -20.00,1.18000, -10.00,1.05000,  10.00,1.05000,  20.00,1.18000,  30.00,1.41000
0 / END OF IMPEDANCE CORRECTION DATA, BEGIN MULTI-TERMINAL DC DATA
0 / END OF MULTI-TERMINAL DC DATA, BEGIN MULTI-SECTION LINE DATA
0 / END OF MULTI-SECTION LINE DATA, BEGIN ZONE DATA
   1,'Upstate '
   2,'Midlands'
0 / END OF ZONE DATA, BEGIN INTER-AREA TRANSFER DATA
0 / END OF INTER-AREA TRANSFER DATA, BEGIN OWNER DATA
    1,'1'
0 / END OF OWNER DATA, BEGIN FACTS CONTROL DEVICE DATA
0 / END OF FACTS CONTROL DEVICE DATA, BEGIN SWITCHED SHUNT DATA
   27,0,0,1,1.00000,0.99000,    0,100.0,'        ',   50.00, 1,  80.00
  491,0,0,1,1.00000,0.99000,    0,100.0,'        ',   50.00, 1,  50.00
0 /END OF SWITCHED SHUNT DATA, BEGIN GNE DEVICE DATA
0 /END OF GNE DEVICE DATA
Q
